18

O         -1.59616        1.40967        0.58727
H         -0.87962        0.72070        0.60836
H         -1.85168        1.57471        1.50278
O          3.37873        3.51898        0.42851
H          3.72394        3.33178        1.30946
H          2.65258        4.17279        0.54299
O         -0.49322        3.32749       -0.90596
H         -1.07496        3.53497       -1.64745
H         -0.98109        2.67510       -0.32987
O          1.88463        1.61242       -0.97354
H          2.54399        2.17004       -0.50479
H          1.15574        2.22175       -1.19014
O          1.11275        5.09589        0.52346
H          0.46038        4.57667        0.00333
H          1.09534        5.99661        0.17913
O          0.55680       -0.18877        0.49385
H          0.56782       -1.05779        0.07571
H          1.15720        0.40026       -0.04090
