52

C 4.74689 5.89464 -1.55306
C 4.79858 7.22714 -0.78281
C 4.04532 7.13945 0.55382
C 2.58457 6.70120 0.33912
C 2.60187 5.36744 -0.45279
C 1.18016 4.88511 -0.13076
C 0.04290 5.67468 -0.78644
N -0.26001 5.07852 -2.10266
C -2.24794 9.74314 -3.22335
C -1.42622 10.36518 -2.08284
C -2.35498 10.94300 -0.99228
C 2.67802 6.24593 -2.95504
C 3.30503 5.37723 -1.84408
C 3.38613 3.92652 -2.36351
O 0.92156 11.28001 -0.78970
C 0.73357 9.92827 -0.84078
C -0.40524 9.41359 -1.47340
C -0.56409 8.02609 -1.43112
C 0.37468 7.16283 -0.85626
C 1.55984 7.68359 -0.27770
C 1.67127 9.08248 -0.22611
O 2.71244 9.77455 0.38651
O 1.99764 6.66106 2.74492
C 1.90176 6.21377 1.62677
O 1.10464 5.15143 1.31658
H 5.28271 5.99346 -2.50536
H 5.28662 5.13251 -0.97116
H 5.84497 7.49293 -0.58943
H 4.38399 8.04034 -1.39039
H 4.51288 6.36352 1.17429
H 4.14880 8.06431 1.11947
H 3.23875 4.69747 0.14497
H 1.02740 3.81054 -0.24912
H -0.81815 5.57635 -0.10431
H -0.86821 4.27086 -1.98954
H -0.74841 5.73746 -2.70145
H -2.91040 8.94658 -2.86402
H -2.88495 10.50829 -3.68015
H -1.60436 9.32668 -4.00578
H -0.85889 11.20472 -2.50335
H -1.78023 11.43646 -0.20317
H -3.04233 11.68018 -1.42370
H -2.95475 10.14799 -0.53311
H 2.60659 7.30109 -2.68377
H 3.30913 6.17573 -3.84973
H 1.68043 5.88893 -3.21350
H 3.83014 3.25404 -1.61862
H 2.39268 3.54748 -2.62532
H 4.00916 3.88023 -3.26443
H 1.73831 11.43592 -0.28662
H -1.47078 7.59957 -1.85116
H 2.83280 9.45356 1.29056
