12

O -2.26308340 -0.10372190 -0.31017290
C -1.28847270 -0.63841420 0.18138320
C 0.04138970 0.07965330 0.30879920
H 0.25124890 0.14534910 1.39365550
O -0.02048520 1.36828310 -0.25176160
C 1.17854250 -0.74454560 -0.30317830
O 2.40829960 -0.26912010 0.23309840
H -1.33933870 -1.67189130 0.57837010
H -0.94358290 1.51709890 -0.52251030
H 1.04314600 -1.80885200 -0.05239510
H 1.13914840 -0.62912960 -1.39384160
H 3.11498810 -0.40230980 -0.40984650

